#Drain package input file
162	0								Number of total drain cells in MODFLOW simulation			
162	0								Number of active drain cells during current stress period
1	34	15	136.27	100.00	0				Layer Row Column Elevation Conductance
1	36	19	135.34	100.00	0
1	37	19	132.56	100.00	0
1	34	15	136.27	100.00	0
1	35	15	133.34	100.00	0
1	36	13	135.35	100.00	0
1	36	14	130.83	100.00	0
1	36	15	131.07	100.00	0
1	37	13	132.03	100.00	0
1	37	14	128.85	100.00	0
1	36	17	132.00	100.00	0
1	36	18	132.23	100.00	0
1	36	19	135.34	100.00	0
1	37	18	127.80	100.00	0
1	37	19	132.56	100.00	0
1	38	18	126.51	100.00	0
1	39	18	125.35	100.00	0
1	40	18	123.05	100.00	0
1	44	17	117.34	100.00	0
1	36	13	135.35	100.00	0
1	37	13	132.03	100.00	0
1	42	13	127.55	100.00	0
1	41	23	127.11	100.00	0
1	41	25	131.09	100.00	0
1	42	25	128.98	100.00	0
1	44	29	129.93	100.00	0
1	42	13	127.55	100.00	0
1	43	13	127.39	100.00	0
1	43	14	120.97	100.00	0
1	44	12	128.89	100.00	0
1	44	13	124.03	100.00	0
1	44	17	117.34	100.00	0
1	45	12	128.2	100.00	0
1	47	15	127.96	100.00	0
1	48	14	131.75	100.00	0
1	48	15	125.36	100.00	0
1	48	16	128.07	100.00	0
1	49	14	130.41	100.00	0
1	49	15	124.04	100.00	0
1	49	16	122.83	100.00	0
1	49	17	125.27	100.00	0
1	50	17	121.21	100.00	0
1	51	17	119.54	100.00	0
1	44	28	128.19	100.00	0
1	44	29	129.93	100.00	0
1	45	28	124.83	100.00	0
1	45	29	124.43	100.00	0
1	46	28	123.97	100.00	0
1	46	29	121.16	100.00	0
1	47	28	121.71	100.00	0
1	47	29	121.07	100.00	0
1	47	30	125	100.00	0
1	47	31	125.88	100.00	0
1	48	29	118.01	100.00	0
1	48	30	119.29	100.00	0
1	50	31	120.75	100.00	0
1	50	32	121.41	100.00	0
1	51	29	115.74	100.00	0
1	51	30	115.75	100.00	0
1	51	31	117.1	100.00	0
1	39	21	129.84	100.00	0
1	40	21	127.22	100.00	0
1	41	21	123.06	100.00	0
1	41	22	125.31	100.00	0
1	41	23	127.11	100.00	0
1	41	25	131.09	100.00	0
1	42	20	124.89	100.00	0
1	42	21	120.83	100.00	0
1	42	22	124.61	100.00	0
1	42	23	123.7	100.00	0
1	42	24	127.69	100.00	0
1	42	25	128.98	100.00	0
1	43	20	121.38	100.00	0
1	43	22	123.31	100.00	0
1	43	23	123.3	100.00	0
1	43	24	124.7	100.00	0
1	43	25	125.44	100.00	0
1	44	17	117.34	100.00	0
1	44	20	119.62	100.00	0
1	44	22	121.92	100.00	0
1	44	23	120.18	100.00	0
1	44	26	124.99	100.00	0
1	45	16	121.16	100.00	0
1	45	17	118.75	100.00	0
1	45	21	119.78	100.00	0
1	45	22	119.04	100.00	0
1	45	25	124.01	100.00	0
1	45	26	124.02	100.00	0
1	46	24	122.19	100.00	0
1	46	25	118.83	100.00	0
1	47	15	127.96	100.00	0
1	47	24	117.51	100.00	0
1	48	24	114.78	100.00	0
1	49	24	112.93	100.00	0
1	48	9	131.1	100.00	0
1	48	10	131.42	100.00	0
1	48	11	136.1	100.00	0
1	49	11	129.97	100.00	0
1	49	12	129.41	100.00	0
1	50	12	127.99	100.00	0
1	51	11	127.3	100.00	0
1	51	12	126.23	100.00	0
1	52	11	124.56	100.00	0
1	52	12	123.44	100.00	0
1	55	22	113.68	100.00	0
1	56	21	119.89	100.00	0
1	56	22	114.67	100.00	0
1	57	20	121.28	100.00	0
1	57	21	117.87	100.00	0
1	57	22	118.92	100.00	0
1	58	20	124.65	100.00	0
1	58	22	120.72	100.00	0
1	50	32	121.41	100.00	0
1	52	33	119.68	100.00	0
1	52	34	120.48	100.00	0
1	53	33	118.21	100.00	0
1	53	34	119.19	100.00	0
1	54	33	115.38	100.00	0
1	54	34	118.3	100.00	0
1	54	36	118.48	100.00	0
1	55	33	113.56	100.00	0
1	55	36	116.08	100.00	0
1	56	34	117.14	100.00	0
1	57	35	112.95	100.00	0
1	53	38	122.08	100.00	0
1	53	40	122.22	100.00	0
1	54	38	117.54	100.00	0
1	54	39	117.39	100.00	0
1	54	40	118.79	100.00	0
1	55	39	116.77	100.00	0
1	56	38	113.62	100.00	0
1	56	39	117.41	100.00	0
1	59	38	113.81	100.00	0
1	59	39	119.41	100.00	0
1	59	40	118.23	100.00	0
1	59	41	120.19	100.00	0
1	60	40	114.99	100.00	0
1	59	26	115.72	100.00	0
1	59	27	113.57	100.00	0
1	60	26	117.47	100.00	0
1	60	27	112.5	100.00	0
1	60	28	111.29	100.00	0
1	61	26	116.2	100.00	0
1	61	28	116.38	100.00	0
1	63	32	115.41	100.00	0
1	61	43	121.04	100.00	0
1	62	42	113.24	100.00	0
1	62	43	114.84	100.00	0
1	63	42	110.5	100.00	0
1	63	43	115.69	100.00	0
1	64	42	110.66	100.00	0
1	65	43	113.67	100.00	0
1	63	31	116.51	100.00	0
1	63	32	115.41	100.00	0
1	64	32	112.16	100.00	0
1	64	33	112.74	100.00	0
1	64	34	111.44	100.00	0
1	64	35	108.38	100.00	0
1	65	33	112.22	100.00	0
1	65	34	109.9	100.00	0
1	65	35	109.9	100.00	0
1	65	43	113.67	100.00	0
