#Drain package input file
162	0								Number of total drain cells in MODFLOW simulation			
162	0								Number of active drain cells during current stress period
1	34	15	134.27	100.00	0
1	36	19	133.34	100.00	0
1	37	19	130.56	100.00	0
1	34	15	134.27	100.00	0
1	35	15	131.34	100.00	0
1	36	13	133.35	100.00	0
1	36	14	128.83	100.00	0
1	36	15	129.07	100.00	0
1	37	13	130.03	100.00	0
1	37	14	126.85	100.00	0
1	36	17	130.00	100.00	0
1	36	18	130.23	100.00	0
1	36	19	133.34	100.00	0
1	37	18	125.80	100.00	0
1	37	19	130.56	100.00	0
1	38	18	124.51	100.00	0
1	39	18	123.35	100.00	0
1	40	18	121.05	100.00	0
1	44	17	115.34	100.00	0
1	36	13	133.35	100.00	0
1	37	13	130.03	100.00	0
1	42	13	125.55	100.00	0
1	41	23	125.11	100.00	0
1	41	25	129.09	100.00	0
1	42	25	126.98	100.00	0
1	44	29	127.93	100.00	0
1	42	13	125.55	100.00	0
1	43	13	125.39	100.00	0
1	43	14	118.97	100.00	0
1	44	12	126.89	100.00	0
1	44	13	122.03	100.00	0
1	44	17	115.34	100.00	0
1	45	12	126.2	100.00	0
1	47	15	125.96	100.00	0
1	48	14	129.75	100.00	0
1	48	15	123.36	100.00	0
1	48	16	126.07	100.00	0
1	49	14	128.41	100.00	0
1	49	15	122.04	100.00	0
1	49	16	120.83	100.00	0
1	49	17	123.27	100.00	0
1	50	17	119.21	100.00	0
1	51	17	117.54	100.00	0
1	44	28	126.19	100.00	0
1	44	29	127.93	100.00	0
1	45	28	122.83	100.00	0
1	45	29	122.43	100.00	0
1	46	28	121.97	100.00	0
1	46	29	119.16	100.00	0
1	47	28	119.71	100.00	0
1	47	29	119.07	100.00	0
1	47	30	123	100.00	0
1	47	31	123.88	100.00	0
1	48	29	116.01	100.00	0
1	48	30	117.29	100.00	0
1	50	31	118.75	100.00	0
1	50	32	119.41	100.00	0
1	51	29	113.74	100.00	0
1	51	30	113.75	100.00	0
1	51	31	115.1	100.00	0
1	39	21	127.84	100.00	0
1	40	21	125.22	100.00	0
1	41	21	121.06	100.00	0
1	41	22	123.31	100.00	0
1	41	23	125.11	100.00	0
1	41	25	129.09	100.00	0
1	42	20	122.89	100.00	0
1	42	21	118.83	100.00	0
1	42	22	122.61	100.00	0
1	42	23	121.7	100.00	0
1	42	24	125.69	100.00	0
1	42	25	126.98	100.00	0
1	43	20	119.38	100.00	0
1	43	22	121.31	100.00	0
1	43	23	121.3	100.00	0
1	43	24	122.7	100.00	0
1	43	25	123.44	100.00	0
1	44	17	115.34	100.00	0
1	44	20	117.62	100.00	0
1	44	22	119.92	100.00	0
1	44	23	118.18	100.00	0
1	44	26	122.99	100.00	0
1	45	16	119.16	100.00	0
1	45	17	116.75	100.00	0
1	45	21	117.78	100.00	0
1	45	22	117.04	100.00	0
1	45	25	122.01	100.00	0
1	45	26	122.02	100.00	0
1	46	24	120.19	100.00	0
1	46	25	116.83	100.00	0
1	47	15	125.96	100.00	0
1	47	24	115.51	100.00	0
1	48	24	112.78	100.00	0
1	49	24	110.93	100.00	0
1	48	9	129.1	100.00	0
1	48	10	129.42	100.00	0
1	48	11	134.1	100.00	0
1	49	11	127.97	100.00	0
1	49	12	127.41	100.00	0
1	50	12	125.99	100.00	0
1	51	11	125.3	100.00	0
1	51	12	124.23	100.00	0
1	52	11	122.56	100.00	0
1	52	12	121.44	100.00	0
1	55	22	111.68	100.00	0
1	56	21	117.89	100.00	0
1	56	22	112.67	100.00	0
1	57	20	119.28	100.00	0
1	57	21	115.87	100.00	0
1	57	22	116.92	100.00	0
1	58	20	122.65	100.00	0
1	58	22	118.72	100.00	0
1	50	32	119.41	100.00	0
1	52	33	117.68	100.00	0
1	52	34	118.48	100.00	0
1	53	33	116.21	100.00	0
1	53	34	117.19	100.00	0
1	54	33	113.38	100.00	0
1	54	34	116.3	100.00	0
1	54	36	116.48	100.00	0
1	55	33	111.56	100.00	0
1	55	36	114.08	100.00	0
1	56	34	115.14	100.00	0
1	57	35	110.95	100.00	0
1	53	38	120.08	100.00	0
1	53	40	120.22	100.00	0
1	54	38	115.54	100.00	0
1	54	39	115.39	100.00	0
1	54	40	116.79	100.00	0
1	55	39	114.77	100.00	0
1	56	38	111.62	100.00	0
1	56	39	115.41	100.00	0
1	59	38	111.81	100.00	0
1	59	39	117.41	100.00	0
1	59	40	116.23	100.00	0
1	59	41	118.19	100.00	0
1	60	40	112.99	100.00	0
1	59	26	113.72	100.00	0
1	59	27	111.57	100.00	0
1	60	26	115.47	100.00	0
1	60	27	110.5	100.00	0
1	60	28	109.29	100.00	0
1	61	26	114.2	100.00	0
1	61	28	114.38	100.00	0
1	63	32	113.41	100.00	0
1	61	43	119.04	100.00	0
1	62	42	111.24	100.00	0
1	62	43	112.84	100.00	0
1	63	42	108.5	100.00	0
1	63	43	113.69	100.00	0
1	64	42	108.66	100.00	0
1	65	43	111.67	100.00	0
1	63	31	114.51	100.00	0
1	63	32	113.41	100.00	0
1	64	32	110.16	100.00	0
1	64	33	110.74	100.00	0
1	64	34	109.44	100.00	0
1	64	35	106.38	100.00	0
1	65	33	110.22	100.00	0
1	65	34	107.9	100.00	0
1	65	35	107.9	100.00	0
1	65	43	111.67	100.00	0
