# MT3DMS/RT3D LINKER FILE
#
OUTPUT_FILE_NAME modflow_LRW.hff
OUTPUT_FILE_UNIT
OUTPUT_FILE_HEADER extended
OUTPUT_FILE_FORMAT formatted
