 .Sol file Watershed HRU:14 Subbasin:1 HRU:14 Luse:FRSE Soil: LREW10 Slope: 0-9999 5/20/2015 12:00:00 AM ArcSWAT 2012.10_2.15
 Soil Name: LREW10
 Soil Hydrologic Group: D
 Maximum rooting depth(m) : 1780.00
 Porosity fraction from which anions are excluded: 0.500
 Crack volume potential of soil: 0.500
 Texture 1                : LS-SCL-SCL
 Depth                [mm]:      710.00     1170.00     1780.00
 Bulk Density Moist [g/cc]:        1.53        1.60        1.65
 Ave. AW Incl. Rock Frag  :        0.07        0.12        0.09
 Ksat. (est.)      [mm/hr]:      331.20       32.40        9.72
 Organic Carbon [weight %]:        0.87        0.15        0.15
 Clay           [weight %]:        7.00       22.50       25.00
 Silt           [weight %]:        9.20       17.90       18.00
 Sand           [weight %]:       83.80       59.60       57.00
 Rock Fragments   [vol. %]:        1.00        2.00        6.00
 Soil Albedo (Moist)      :        0.16        0.16        0.16
 Erosion K                :        0.10        0.24        0.28
 Salinity (EC, Form 5)    :        0.00        0.00        0.00
 Soil pH                  :        5.00        5.00        5.00
 Soil CACO3               :        0.00        0.00        0.00
                              
