 .Sol file Watershed HRU:1049 Subbasin:38 HRU:17 Luse:FRSD Soil: LREW08 Slope: 0-9999 5/20/2015 12:00:00 AM ArcSWAT 2012.10_2.15
 Soil Name: LREW08
 Soil Hydrologic Group: C
 Maximum rooting depth(m) : 1650.00
 Porosity fraction from which anions are excluded: 0.500
 Crack volume potential of soil: 0.500
 Texture 1                : SL-SCL-SCL
 Depth                [mm]:      100.00      790.00     1650.00
 Bulk Density Moist [g/cc]:        1.48        1.40        1.60
 Ave. AW Incl. Rock Frag  :        0.11        0.13        0.12
 Ksat. (est.)      [mm/hr]:      100.80       28.80        7.20
 Organic Carbon [weight %]:        1.16        0.15        0.15
 Clay           [weight %]:       12.50       32.50       26.50
 Silt           [weight %]:       19.60       14.00       17.70
 Sand           [weight %]:       67.90       53.50       55.80
 Rock Fragments   [vol. %]:        5.00        5.00       11.00
 Soil Albedo (Moist)      :        0.30        0.30        0.30
 Erosion K                :        0.24        0.28        0.24
 Salinity (EC, Form 5)    :        0.00        0.00        0.00
 Soil pH                  :        5.00        5.00        5.00
 Soil CACO3               :        0.00        0.00        0.00
                              
