 .Sol file Watershed HRU:1456 Subbasin:54 HRU:18 Luse:PAST Soil: LREW11 Slope: 0-9999 5/20/2015 12:00:00 AM ArcSWAT 2012.10_2.15
 Soil Name: LREW11
 Soil Hydrologic Group: D
 Maximum rooting depth(m) : 1650.00
 Porosity fraction from which anions are excluded: 0.500
 Crack volume potential of soil: 0.500
 Texture 1                : SL-SCL-SC
 Depth                [mm]:      200.00      460.00     1650.00
 Bulk Density Moist [g/cc]:        1.35        1.48        1.55
 Ave. AW Incl. Rock Frag  :        0.13        0.13        0.14
 Ksat. (est.)      [mm/hr]:       32.40        9.72        3.24
 Organic Carbon [weight %]:        1.45        0.15        0.15
 Clay           [weight %]:       17.50       27.50       45.00
 Silt           [weight %]:       15.30       17.40        9.90
 Sand           [weight %]:       67.20       55.10       45.10
 Rock Fragments   [vol. %]:        1.00        0.00        0.00
 Soil Albedo (Moist)      :        0.23        0.23        0.23
 Erosion K                :        0.10        0.10        0.10
 Salinity (EC, Form 5)    :        0.00        0.00        0.00
 Soil pH                  :        4.60        4.60        4.60
 Soil CACO3               :        0.00        0.00        0.00
                              
