 .Sol file Watershed HRU:1321 Subbasin:50 HRU:10 Luse:FRSE Soil: LREW03 Slope: 0-9999 5/20/2015 12:00:00 AM ArcSWAT 2012.10_2.15
 Soil Name: LREW03
 Soil Hydrologic Group: B
 Maximum rooting depth(m) : 1520.00
 Porosity fraction from which anions are excluded: 0.500
 Crack volume potential of soil: 0.500
 Texture 1                : LS-SCL-SCL
 Depth                [mm]:      360.00     1070.00     1520.00
 Bulk Density Moist [g/cc]:        1.45        1.50        1.58
 Ave. AW Incl. Rock Frag  :        0.08        0.14        0.10
 Ksat. (est.)      [mm/hr]:      100.80       32.40        9.72
 Organic Carbon [weight %]:        0.15        0.15        0.15
 Clay           [weight %]:       10.00       26.50       29.00
 Silt           [weight %]:        4.30       17.70       17.10
 Sand           [weight %]:       85.70       55.80       53.90
 Rock Fragments   [vol. %]:        5.00        5.00        5.00
 Soil Albedo (Moist)      :        0.30        0.30        0.30
 Erosion K                :        0.15        0.28        0.28
 Salinity (EC, Form 5)    :        0.00        0.00        0.00
 Soil pH                  :        5.30        5.30        5.30
 Soil CACO3               :        0.00        0.00        0.00
                              
