 .Sol file Watershed HRU:1658 Subbasin:62 HRU:16 Luse:FRSD Soil: LREW05 Slope: 0-9999 5/20/2015 12:00:00 AM ArcSWAT 2012.10_2.15
 Soil Name: LREW05
 Soil Hydrologic Group: B
 Maximum rooting depth(m) : 1650.00
 Porosity fraction from which anions are excluded: 0.500
 Crack volume potential of soil: 0.500
 Texture 1                : LS-SL-SCL
 Depth                [mm]:      660.00      790.00     1650.00
 Bulk Density Moist [g/cc]:        1.65        1.50        1.50
 Ave. AW Incl. Rock Frag  :        0.07        0.14        0.12
 Ksat. (est.)      [mm/hr]:      331.20       32.40        3.24
 Organic Carbon [weight %]:        0.73        0.15        0.15
 Clay           [weight %]:        6.00       18.00       27.50
 Silt           [weight %]:        9.10       18.90       17.40
 Sand           [weight %]:       84.90       63.10       55.10
 Rock Fragments   [vol. %]:        5.00       10.00        5.00
 Soil Albedo (Moist)      :        0.30        0.30        0.30
 Erosion K                :        0.15        0.20        0.20
 Salinity (EC, Form 5)    :        0.00        0.00        0.00
 Soil pH                  :        5.30        5.30        5.30
 Soil CACO3               :        0.00        0.00        0.00
                              
