 .Sol file Watershed HRU:2692 Subbasin:97 HRU:25 Luse:URLD Soil: LREW04 Slope: 0-9999 5/20/2015 12:00:00 AM ArcSWAT 2012.10_2.15
 Soil Name: LREW04
 Soil Hydrologic Group: B
 Maximum rooting depth(m) : 1930.00
 Porosity fraction from which anions are excluded: 0.500
 Crack volume potential of soil: 0.500
 Texture 1                : SL-SC-C
 Depth                [mm]:      180.00      380.00     1930.00
 Bulk Density Moist [g/cc]:        1.55        1.60        1.58
 Ave. AW Incl. Rock Frag  :        0.13        0.15        0.15
 Ksat. (est.)      [mm/hr]:      100.80       32.40        3.24
 Organic Carbon [weight %]:        0.44        0.15        0.15
 Clay           [weight %]:       14.00       35.50       47.50
 Silt           [weight %]:       19.20       12.20       29.20
 Sand           [weight %]:       66.80       52.30       23.30
 Rock Fragments   [vol. %]:        7.00        7.00        7.00
 Soil Albedo (Moist)      :        0.30        0.30        0.30
 Erosion K                :        0.28        0.32        0.32
 Salinity (EC, Form 5)    :        0.00        0.00        0.00
 Soil pH                  :        4.60        4.60        4.60
 Soil CACO3               :        0.00        0.00        0.00
                              
