 .Sol file Watershed HRU:4436 Subbasin:164 HRU:6 Luse:AGRL Soil: LREW09 Slope: 0-9999 5/20/2015 12:00:00 AM ArcSWAT 2012.10_2.15
 Soil Name: LREW09
 Soil Hydrologic Group: C
 Maximum rooting depth(m) : 1650.00
 Porosity fraction from which anions are excluded: 0.500
 Crack volume potential of soil: 0.500
 Texture 1                : LS-SL-SCL
 Depth                [mm]:      790.00      940.00     1650.00
 Bulk Density Moist [g/cc]:        1.53        1.58        1.60
 Ave. AW Incl. Rock Frag  :        0.06        0.12        0.10
 Ksat. (est.)      [mm/hr]:      331.20       32.40        9.72
 Organic Carbon [weight %]:        0.87        0.15        0.15
 Clay           [weight %]:        7.50       18.00       22.50
 Silt           [weight %]:        9.00       16.90       17.90
 Sand           [weight %]:       83.50       65.10       59.60
 Rock Fragments   [vol. %]:        3.00        4.00        4.00
 Soil Albedo (Moist)      :        0.23        0.23        0.23
 Erosion K                :        0.10        0.15        0.10
 Salinity (EC, Form 5)    :        0.00        0.00        0.00
 Soil pH                  :        5.30        5.00        5.00
 Soil CACO3               :        0.00        0.00        0.00
                              
