 .Sol file Watershed HRU:5232 Subbasin:198 HRU:14 Luse:FRSE Soil: LREW01 Slope: 0-9999 5/20/2015 12:00:00 AM ArcSWAT 2012.10_2.15
 Soil Name: LREW01
 Soil Hydrologic Group: A
 Maximum rooting depth(m) : 2290.00
 Porosity fraction from which anions are excluded: 0.500
 Crack volume potential of soil: 0.500
 Texture 1                : S
 Depth                [mm]:     2290.00
 Bulk Density Moist [g/cc]:        1.48
 Ave. AW Incl. Rock Frag  :        0.04
 Ksat. (est.)      [mm/hr]:      507.60
 Organic Carbon [weight %]:        0.44
 Clay           [weight %]:        3.00
 Silt           [weight %]:        1.50
 Sand           [weight %]:       95.50
 Rock Fragments   [vol. %]:        2.00
 Soil Albedo (Moist)      :        0.37
 Erosion K                :        0.10
 Salinity (EC, Form 5)    :        0.00
 Soil pH                  :        5.30
 Soil CACO3               :        0.00
                              
