 .Sol file Watershed HRU:5752 Subbasin:222 HRU:14 Luse:FRSE Soil: LREW07 Slope: 0-9999 5/20/2015 12:00:00 AM ArcSWAT 2012.10_2.15
 Soil Name: LREW07
 Soil Hydrologic Group: C
 Maximum rooting depth(m) : 1650.00
 Porosity fraction from which anions are excluded: 0.500
 Crack volume potential of soil: 0.500
 Texture 1                : LS-SCL-SCL
 Depth                [mm]:      360.00     1020.00     1650.00
 Bulk Density Moist [g/cc]:        1.50        1.50        1.55
 Ave. AW Incl. Rock Frag  :        0.10        0.13        0.10
 Ksat. (est.)      [mm/hr]:      100.80       32.40        9.72
 Organic Carbon [weight %]:        1.02        0.15        0.15
 Clay           [weight %]:        6.00       26.50       27.50
 Silt           [weight %]:        9.10       17.70       17.40
 Sand           [weight %]:       84.90       55.80       55.10
 Rock Fragments   [vol. %]:        6.00        6.00        2.00
 Soil Albedo (Moist)      :        0.30        0.30        0.30
 Erosion K                :        0.15        0.20        0.15
 Salinity (EC, Form 5)    :        0.00        0.00        0.00
 Soil pH                  :        5.50        5.00        5.00
 Soil CACO3               :        0.00        0.00        0.00
                              
