 .Sol file Watershed HRU:6108 Subbasin:236 HRU:17 Luse:FRSE Soil: LREW06 Slope: 0-9999 5/20/2015 12:00:00 AM ArcSWAT 2012.10_2.15
 Soil Name: LREW06
 Soil Hydrologic Group: B
 Maximum rooting depth(m) : 1650.00
 Porosity fraction from which anions are excluded: 0.500
 Crack volume potential of soil: 0.500
 Texture 1                : LS-SL-SCL-SCL
 Depth                [mm]:      250.00      380.00      970.00     1650.00
 Bulk Density Moist [g/cc]:        1.43        1.55        1.60        1.68
 Ave. AW Incl. Rock Frag  :        0.06        0.10        0.14        0.12
 Ksat. (est.)      [mm/hr]:      331.20      331.20       32.40        9.72
 Organic Carbon [weight %]:        0.44        0.44        0.15        0.15
 Clay           [weight %]:        5.50       17.50       27.50       32.50
 Silt           [weight %]:        9.20       15.30       17.40       14.00
 Sand           [weight %]:       85.30       67.20       55.10       53.50
 Rock Fragments   [vol. %]:       13.00       13.00       13.00       10.00
 Soil Albedo (Moist)      :        0.30        0.30        0.30        0.30
 Erosion K                :        0.15        0.28        0.28        0.17
 Salinity (EC, Form 5)    :        0.00        0.00        0.00        0.00
 Soil pH                  :        5.30        5.30        5.30        5.00
 Soil CACO3               :        0.00        0.00        0.00        0.00
                              
