MODFLOW observation cells (number of cells, I,J,K for each cell)
15
19 2 1
15 8 1
49 15 1
75 11 1
93 31 1
39 35 1
29 44 1
85 48 1
95 61 1
56 64 1
132 93 1
114 103 1
137 113 1
135 125 1
139 132 1

